<?xml version="1.0" encoding="UTF-8"?>

<!-- generated on 2024-01-23 09:33:06 by Eclipse SUMO GUI Version 1.19.0
<configuration xmlns:xsi="http://www.w3.org/2001/XMLSchema-instance" xsi:noNamespaceSchemaLocation="http://sumo.dlr.de/xsd/sumoConfiguration.xsd">

    <input>
        <net-file value="/home/mds/Desktop/highway_episodic/highway_episodic.net.xml"/>
        <route-files value="/home/mds/Desktop/highway_episodic/route_file/highway_episodic_2.rou.xml"/>
    </input>

    <output>
        <collision-output value="colliderSpeed"/>
    </output>

    <time>
        <step-length value="0.01"/>
    </time>

    <processing>
        <collision.action value="remove"/>
        <collision.mingap-factor value="0"/>
        <lanechange.duration value="2"/>
    </processing>

    <report>
        <no-step-log value="true"/>
    </report>

    <traci_server>
        <remote-port value="57411"/>
    </traci_server>

    <gui_only>
        <gui-settings-file value="/home/mds/Desktop/highway_episodic/viewsettings.xml"/>
        <quit-on-end value="true"/>
        <start value="true"/>
    </gui_only>

</configuration>
-->

<collisions xmlns:xsi="http://www.w3.org/2001/XMLSchema-instance" xsi:noNamespaceSchemaLocation="http://sumo.dlr.de/xsd/collision_file.xsd">
    <collision time="4.92" type="collision" lane="E5_1" pos="196.04" collider="accel.rear" victim="ego" colliderType="accel_truck@accel.rear" victimType="car@ego" colliderSpeed="46.52" victimSpeed="19.09"/>
</collisions>
