<?xml version="1.0" encoding="UTF-8"?>

<!-- generated on 2024-01-03 11:23:53 by Eclipse SUMO netedit Version 1.16.0
<configuration xmlns:xsi="http://www.w3.org/2001/XMLSchema-instance" xsi:noNamespaceSchemaLocation="http://sumo.dlr.de/xsd/netconvertConfiguration.xsd">

    <input>
        <sumo-net-file value="C:\Users\jewoo\OneDrive\바탕 화면\SUMO\highway_episodic\highway_episodic.net.xml"/>
    </input>

    <output>
        <output-file value="C:\Users\jewoo\OneDrive\바탕 화면\SUMO\highway_episodic\highway_episodic.net.xml"/>
    </output>

    <processing>
        <geometry.min-radius.fix.railways value="false"/>
        <geometry.max-grade.fix value="false"/>
        <offset.disable-normalization value="true"/>
        <lefthand value="0"/>
    </processing>

    <junctions>
        <no-turnarounds value="true"/>
        <junctions.corner-detail value="5"/>
        <junctions.limit-turn-speed value="5.50"/>
        <rectangular-lane-cut value="0"/>
    </junctions>

    <pedestrian>
        <walkingareas value="0"/>
    </pedestrian>

</configuration>
-->

<net version="1.16" junctionCornerDetail="5" limitTurnSpeed="5.50" xmlns:xsi="http://www.w3.org/2001/XMLSchema-instance" xsi:noNamespaceSchemaLocation="http://sumo.dlr.de/xsd/net_file.xsd">

    <location netOffset="0.00,0.00" convBoundary="-100.00,-100.00,1300.00,0.00" origBoundary="-10000000000.00,-10000000000.00,10000000000.00,10000000000.00" projParameter="!"/>

    <edge id=":J8_0" function="internal">
        <lane id=":J8_0_0" index="0" speed="10.28" length="3.71" shape="85.90,-8.84 86.89,-8.36 87.60,-8.11 88.36,-8.02 89.46,-8.00"/>
    </edge>
    <edge id=":J8_1" function="internal">
        <lane id=":J8_1_0" index="0" speed="200.00" length="3.76" shape="85.70,-4.80 89.46,-4.80"/>
        <lane id=":J8_1_1" index="1" speed="200.00" length="3.76" shape="85.70,-1.60 89.46,-1.60"/>
    </edge>
    <edge id=":J9_0" function="internal">
        <lane id=":J9_0_0" index="0" speed="10.28" length="3.71" shape="1110.54,-8.00 1111.64,-8.02 1112.40,-8.11 1113.11,-8.36 1114.10,-8.84"/>
    </edge>
    <edge id=":J9_1" function="internal">
        <lane id=":J9_1_0" index="0" speed="200.00" length="3.76" shape="1110.54,-4.80 1114.30,-4.80"/>
        <lane id=":J9_1_1" index="1" speed="200.00" length="3.76" shape="1110.54,-1.60 1114.30,-1.60"/>
    </edge>

    <edge id="E4" from="J7" to="J8" priority="-1">
        <lane id="E4_0" index="0" speed="200.00" length="185.70" shape="-100.00,-4.80 85.70,-4.80"/>
        <lane id="E4_1" index="1" speed="200.00" length="185.70" shape="-100.00,-1.60 85.70,-1.60"/>
    </edge>
    <edge id="E5" from="J8" to="J9" priority="-1">
        <lane id="E5_0" index="0" speed="200.00" length="1021.09" acceleration="1" shape="89.46,-8.00 1110.54,-8.00"/>
        <lane id="E5_1" index="1" speed="200.00" length="1021.09" acceleration="1" shape="89.46,-4.80 1110.54,-4.80"/>
        <lane id="E5_2" index="2" speed="200.00" length="1021.09" shape="89.46,-1.60 1110.54,-1.60"/>
    </edge>
    <edge id="E6" from="J9" to="J10" priority="-1">
        <lane id="E6_0" index="0" speed="200.00" length="185.70" shape="1114.30,-4.80 1300.00,-4.80"/>
        <lane id="E6_1" index="1" speed="200.00" length="185.70" shape="1114.30,-1.60 1300.00,-1.60"/>
    </edge>
    <edge id="E7" from="J11" to="J8" priority="-1">
        <lane id="E7_0" index="0" speed="80.00" length="207.04" shape="-99.28,-101.43 85.90,-8.84"/>
    </edge>
    <edge id="E8" from="J9" to="J12" priority="-1">
        <lane id="E8_0" index="0" speed="80.00" length="207.04" shape="1114.10,-8.84 1299.28,-101.43"/>
    </edge>

    <junction id="J10" type="dead_end" x="1300.00" y="0.00" incLanes="E6_0 E6_1" intLanes="" shape="1300.00,-6.40 1300.00,0.00"/>
    <junction id="J11" type="dead_end" x="-100.00" y="-100.00" incLanes="" intLanes="" shape="-100.00,-100.00 -98.57,-102.86"/>
    <junction id="J12" type="dead_end" x="1300.00" y="-100.00" incLanes="E8_0" intLanes="" shape="1298.57,-102.86 1300.00,-100.00"/>
    <junction id="J7" type="dead_end" x="-100.00" y="0.00" incLanes="" intLanes="" shape="-100.00,0.00 -100.00,-6.40"/>
    <junction id="J8" type="priority" x="100.00" y="0.00" incLanes="E7_0 E4_0 E4_1" intLanes=":J8_0_0 :J8_1_0 :J8_1_1" shape="89.46,0.00 89.46,-9.60 88.36,-9.63 87.98,-9.69 87.61,-9.81 87.18,-9.99 86.61,-10.27 85.18,-7.41 86.14,-6.85 86.32,-6.65 86.31,-6.51 86.10,-6.43 85.70,-6.40 85.70,0.00">
        <request index="0" response="000" foes="000" cont="0"/>
        <request index="1" response="000" foes="000" cont="0"/>
        <request index="2" response="000" foes="000" cont="0"/>
    </junction>
    <junction id="J9" type="priority" x="1100.00" y="0.00" incLanes="E5_0 E5_1 E5_2" intLanes=":J9_0_0 :J9_1_0 :J9_1_1" shape="1114.30,0.00 1114.30,-6.40 1113.69,-6.51 1113.68,-6.65 1113.86,-6.85 1114.24,-7.10 1114.82,-7.41 1113.39,-10.27 1112.39,-9.81 1112.02,-9.69 1111.64,-9.63 1111.17,-9.60 1110.54,-9.60 1110.54,0.00">
        <request index="0" response="000" foes="000" cont="0"/>
        <request index="1" response="000" foes="000" cont="0"/>
        <request index="2" response="000" foes="000" cont="0"/>
    </junction>

    <connection from="E4" to="E5" fromLane="0" toLane="1" via=":J8_1_0" dir="s" state="M"/>
    <connection from="E4" to="E5" fromLane="1" toLane="2" via=":J8_1_1" dir="s" state="M"/>
    <connection from="E5" to="E8" fromLane="0" toLane="0" via=":J9_0_0" dir="R" state="M"/>
    <connection from="E5" to="E6" fromLane="1" toLane="0" via=":J9_1_0" dir="s" state="M"/>
    <connection from="E5" to="E6" fromLane="2" toLane="1" via=":J9_1_1" dir="s" state="M"/>
    <connection from="E7" to="E5" fromLane="0" toLane="0" via=":J8_0_0" dir="s" state="M"/>

    <connection from=":J8_0" to="E5" fromLane="0" toLane="0" dir="s" state="M"/>
    <connection from=":J8_1" to="E5" fromLane="0" toLane="1" dir="s" state="M"/>
    <connection from=":J8_1" to="E5" fromLane="1" toLane="2" dir="s" state="M"/>
    <connection from=":J9_0" to="E8" fromLane="0" toLane="0" dir="R" state="M"/>
    <connection from=":J9_1" to="E6" fromLane="0" toLane="0" dir="s" state="M"/>
    <connection from=":J9_1" to="E6" fromLane="1" toLane="1" dir="s" state="M"/>

</net>
