<configuration>
    <input>
       <net-file value="highway_episodic.net.xml" />
       <route-files value="highway_episodic.rou.xml" />
       <gui-settings-file value="viewsettings.xml"/>
    </input>
</configuration>