<routes>
        <vType accel="3" decel="4.5" departSpeed = "22" id="car" length="5" maxSpeed="22.22" minGap="0.0" sigma="1" lcSpeedGain ="0"/>
        <vType accel="2.5" decel="4.5" departSpeed = "33" emergencyDecel="9.0" id="truck" length="12" maxSpeed="33.3333" minGap="0.0" sigma="1" collisionMinGapFactor="0" tau="0.0001" lcSpeedGain ="0" vClass="truck"/>
        <vType accel="2.5" decel="4.5" departSpeed = "33" id="accel_truck" length="12" maxSpeed="33.3333" minGap="0.0" sigma="1" collisionMinGapFactor="0" tau="0.0001" lcSpeedGain ="0" vClass="truck"/>
        <route id="route0" color="1,1,0" edges="E5"/>
        
        <vehicle id="ego" type="car" route="route0" depart="0.00" departSpeed="avg" departPos="95" departLane="1" color="0,1,0"/>   
                
        <vehicle id="car.leftrear0" type="car" route="route0" depart="0.00" departSpeed="avg" departPos="47.31962612429156" departLane="2" color="1,1,0"/>
        <vehicle id="car.leftrear1" type="car" route="route0" depart="0.00" departSpeed="avg" departPos="76.61880601173388" departLane="2" color="1,1,0"/>
        <vehicle id="accel.rear" type="accel_truck" route="route0" depart="0.00" departSpeed="max" departPos="0" departLane="1" color="1,0,0"/>
        <vehicle id="car.rightrear0" type="car" route="route0" depart="0.00" departSpeed="avg" departPos="35.476089240342425" departLane="0" color="1,1,0"/> 
        <vehicle id="car.rightrear1" type="car" route="route0" depart="0.00" departSpeed="avg" departPos="65.60078405184777" departLane="0" color="1,1,0"/> 
        <vehicle id="car.leftforward0" type="car" route="route0" depart="0.00" departSpeed="avg" departPos="114.56121764358227" departLane="2" color="1,1,0"/>
        <vehicle id="car.leftforward1" type="car" route="route0" depart="0.00" departSpeed="avg" departPos="149.00777722481985" departLane="2" color="1,1,0"/>
        <vehicle id="car.leftforward2" type="car" route="route0" depart="0.00" departSpeed="avg" departPos="179.82064363318895" departLane="2" color="1,1,0"/>
        <vehicle id="car.forward" type="car" route="route0" depart="0.00" departSpeed="avg" departPos="195" departLane="1" color="1,1,0"/>
        <vehicle id="car.rightforward0" type="car" route="route0" depart="0.00" departSpeed="avg" departPos="103.73307098083826" departLane="0" color="1,1,0"/> 
        <vehicle id="car.rightforward1" type="car" route="route0" depart="0.00" departSpeed="avg" departPos="139.59287242508705" departLane="0" color="1,1,0"/>
        <vehicle id="car.rightforward2" type="car" route="route0" depart="0.00" departSpeed="avg" departPos="169.22021697955287" departLane="0" color="1,1,0"/> 
        
                    
        
</routes>
