<?xml version="1.0" encoding="UTF-8"?>

<!-- generated on 2023-07-28 11:32:42 by Eclipse SUMO netedit Version 1.16.0
<configuration xmlns:xsi="http://www.w3.org/2001/XMLSchema-instance" xsi:noNamespaceSchemaLocation="http://sumo.dlr.de/xsd/netconvertConfiguration.xsd">

    <input>
        <sumo-net-file value="C:\Users\jewoo\OneDrive\바탕 화면\SUMO\highway3\highway3.net.xml"/>
    </input>

    <output>
        <output-file value="C:\Users\jewoo\OneDrive\바탕 화면\SUMO\highway3\highway3.net.xml"/>
    </output>

    <processing>
        <geometry.min-radius.fix.railways value="false"/>
        <geometry.max-grade.fix value="false"/>
        <offset.disable-normalization value="true"/>
        <lefthand value="0"/>
    </processing>

    <junctions>
        <no-turnarounds value="true"/>
        <junctions.corner-detail value="5"/>
        <junctions.limit-turn-speed value="5.50"/>
        <rectangular-lane-cut value="0"/>
    </junctions>

    <pedestrian>
        <walkingareas value="0"/>
    </pedestrian>

</configuration>
-->

<net version="1.16" junctionCornerDetail="5" limitTurnSpeed="5.50" xmlns:xsi="http://www.w3.org/2001/XMLSchema-instance" xsi:noNamespaceSchemaLocation="http://sumo.dlr.de/xsd/net_file.xsd">

    <location netOffset="0.00,0.00" convBoundary="-100.00,-100.00,1300.00,0.00" origBoundary="-10000000000.00,-10000000000.00,10000000000.00,10000000000.00" projParameter="!"/>

    <edge id=":J8_0" function="internal">
        <lane id=":J8_0_0" index="0" speed="10.28" length="4.46" shape="86.65,-12.04 87.64,-11.56 88.36,-11.31 89.11,-11.22 90.21,-11.20"/>
        <lane id=":J8_0_1" index="1" speed="12.10" length="4.46" shape="85.22,-9.18 86.61,-8.51 87.62,-8.16 88.67,-8.02 90.21,-8.00"/>
    </edge>
    <edge id=":J8_2" function="internal">
        <lane id=":J8_2_0" index="0" speed="200.00" length="4.51" shape="85.70,-4.80 90.21,-4.80"/>
        <lane id=":J8_2_1" index="1" speed="200.00" length="4.51" shape="85.70,-1.60 90.21,-1.60"/>
    </edge>
    <edge id=":J9_0" function="internal">
        <lane id=":J9_0_0" index="0" speed="10.28" length="3.71" shape="1109.79,-11.20 1110.89,-11.22 1111.64,-11.31 1112.36,-11.56 1113.35,-12.04"/>
        <lane id=":J9_0_1" index="1" speed="12.10" length="5.21" shape="1109.79,-8.00 1111.33,-8.02 1112.38,-8.16 1113.39,-8.51 1114.78,-9.18"/>
    </edge>
    <edge id=":J9_2" function="internal">
        <lane id=":J9_2_0" index="0" speed="200.00" length="4.51" shape="1109.79,-4.80 1114.30,-4.80"/>
        <lane id=":J9_2_1" index="1" speed="200.00" length="4.51" shape="1109.79,-1.60 1114.30,-1.60"/>
    </edge>

    <edge id="E4" from="J7" to="J8" priority="-1">
        <lane id="E4_0" index="0" speed="200.00" length="185.70" shape="-100.00,-4.80 85.70,-4.80"/>
        <lane id="E4_1" index="1" speed="200.00" length="185.70" shape="-100.00,-1.60 85.70,-1.60"/>
    </edge>
    <edge id="E5" from="J8" to="J9" priority="-1">
        <lane id="E5_0" index="0" speed="200.00" length="1019.58" acceleration="1" shape="90.21,-11.20 1109.79,-11.20"/>
        <lane id="E5_1" index="1" speed="200.00" length="1019.58" acceleration="1" shape="90.21,-8.00 1109.79,-8.00"/>
        <lane id="E5_2" index="2" speed="200.00" length="1019.58" shape="90.21,-4.80 1109.79,-4.80"/>
        <lane id="E5_3" index="3" speed="200.00" length="1019.58" shape="90.21,-1.60 1109.79,-1.60"/>
    </edge>
    <edge id="E6" from="J9" to="J10" priority="-1">
        <lane id="E6_0" index="0" speed="200.00" length="185.70" shape="1114.30,-4.80 1300.00,-4.80"/>
        <lane id="E6_1" index="1" speed="200.00" length="185.70" shape="1114.30,-1.60 1300.00,-1.60"/>
    </edge>
    <edge id="E7" from="J11" to="J8" priority="-1">
        <lane id="E7_0" index="0" speed="80.00" length="206.29" shape="-97.85,-104.29 86.65,-12.04"/>
        <lane id="E7_1" index="1" speed="80.00" length="206.29" shape="-99.28,-101.43 85.22,-9.18"/>
    </edge>
    <edge id="E8" from="J9" to="J12" priority="-1">
        <lane id="E8_0" index="0" speed="80.00" length="206.29" shape="1113.35,-12.04 1297.85,-104.29"/>
        <lane id="E8_1" index="1" speed="80.00" length="206.29" shape="1114.78,-9.18 1299.28,-101.43"/>
    </edge>

    <junction id="J10" type="dead_end" x="1300.00" y="0.00" incLanes="E6_0 E6_1" intLanes="" shape="1300.00,-6.40 1300.00,0.00"/>
    <junction id="J11" type="dead_end" x="-100.00" y="-100.00" incLanes="" intLanes="" shape="-100.00,-100.00 -97.14,-105.72"/>
    <junction id="J12" type="dead_end" x="1300.00" y="-100.00" incLanes="E8_0 E8_1" intLanes="" shape="1297.14,-105.72 1300.00,-100.00"/>
    <junction id="J7" type="dead_end" x="-100.00" y="0.00" incLanes="" intLanes="" shape="-100.00,0.00 -100.00,-6.40"/>
    <junction id="J8" type="priority" x="100.00" y="0.00" incLanes="E7_0 E7_1 E4_0 E4_1" intLanes=":J8_0_0 :J8_0_1 :J8_2_0 :J8_2_1" shape="90.21,0.00 90.21,-12.80 89.12,-12.83 88.73,-12.89 88.36,-13.01 87.93,-13.19 87.37,-13.47 84.51,-7.75 85.84,-7.00 86.15,-6.74 86.23,-6.55 86.08,-6.44 85.70,-6.40 85.70,0.00">
        <request index="0" response="0000" foes="0000" cont="0"/>
        <request index="1" response="0000" foes="0000" cont="0"/>
        <request index="2" response="0000" foes="0000" cont="0"/>
        <request index="3" response="0000" foes="0000" cont="0"/>
    </junction>
    <junction id="J9" type="priority" x="1100.00" y="0.00" incLanes="E5_0 E5_1 E5_2 E5_3" intLanes=":J9_0_0 :J9_0_1 :J9_2_0 :J9_2_1" shape="1114.30,0.00 1114.30,-6.40 1113.77,-6.55 1113.85,-6.74 1114.16,-7.00 1114.71,-7.34 1115.49,-7.75 1112.63,-13.47 1111.64,-13.01 1111.27,-12.89 1110.88,-12.83 1110.42,-12.80 1109.79,-12.80 1109.79,0.00">
        <request index="0" response="0000" foes="0000" cont="0"/>
        <request index="1" response="0000" foes="0000" cont="0"/>
        <request index="2" response="0000" foes="0000" cont="0"/>
        <request index="3" response="0000" foes="0000" cont="0"/>
    </junction>

    <connection from="E4" to="E5" fromLane="0" toLane="2" via=":J8_2_0" dir="s" state="M"/>
    <connection from="E4" to="E5" fromLane="1" toLane="3" via=":J8_2_1" dir="s" state="M"/>
    <connection from="E5" to="E8" fromLane="0" toLane="0" via=":J9_0_0" dir="R" state="M"/>
    <connection from="E5" to="E8" fromLane="1" toLane="1" via=":J9_0_1" dir="R" state="M"/>
    <connection from="E5" to="E6" fromLane="2" toLane="0" via=":J9_2_0" dir="s" state="M"/>
    <connection from="E5" to="E6" fromLane="3" toLane="1" via=":J9_2_1" dir="s" state="M"/>
    <connection from="E7" to="E5" fromLane="0" toLane="0" via=":J8_0_0" dir="s" state="M"/>
    <connection from="E7" to="E5" fromLane="1" toLane="1" via=":J8_0_1" dir="s" state="M"/>

    <connection from=":J8_0" to="E5" fromLane="0" toLane="0" dir="s" state="M"/>
    <connection from=":J8_0" to="E5" fromLane="1" toLane="1" dir="s" state="M"/>
    <connection from=":J8_2" to="E5" fromLane="0" toLane="2" dir="s" state="M"/>
    <connection from=":J8_2" to="E5" fromLane="1" toLane="3" dir="s" state="M"/>
    <connection from=":J9_0" to="E8" fromLane="0" toLane="0" dir="R" state="M"/>
    <connection from=":J9_0" to="E8" fromLane="1" toLane="1" dir="R" state="M"/>
    <connection from=":J9_2" to="E6" fromLane="0" toLane="0" dir="s" state="M"/>
    <connection from=":J9_2" to="E6" fromLane="1" toLane="1" dir="s" state="M"/>

</net>
